[General]
network = blocked
random-seed = 1
ini-warnings = no
sim-time-limit = 1d

[Cmdenv]
runs-to-execute = 1
module-messages = no
status-frequency = 1000
display-update = 1h
extra-stack = 8192 

[Tkenv]
# Change the 1 to 2 for the ring demo
default-run= 1
use-mainwindow = yes
print-banners = yes
slowexec-delay = 300ms
extra-stack = 8192 

[Parameters]
blocked.gen.num_messages = 50000

[Run 1]
blocked.gen.ia_time = 1.1
blocked.server.service_time = 1
blocked.fifo.size = 3


